8

 C    0.829359522643    1.286890541777    0.000000000000
 H   -0.190395690271    1.684144654877    0.000000000000
 H    1.368397392774    1.650439386577   -0.882842000005
 H    1.368397392774    1.650439386577    0.882842000005
 C    0.829359522643   -0.264531455023    0.000000000000
 O   -0.308074664665   -0.831576724423    0.000000000000
 O    1.982751695364   -0.799686082223    0.000000000000
NA   -2.142573455649    0.382760208177    0.000000000000
