8

 C    0.899492210844    1.240466573615    0.000000000000
 H   -0.120263002070    1.637720686715    0.000000000000
 H    1.438530080975    1.604015418415   -0.882842000005
 H    1.438530080975    1.604015418415    0.882842000005
 C    0.899492210844   -0.310955423185    0.000000000000
 O   -0.237941976464   -0.878000692585    0.000000000000
 O    2.052884383565   -0.846110050385    0.000000000000
NA   -2.322599693491    0.501927639916    0.000000000000
