8

 C    0.946247336312    1.209517261507    0.000000000000
 H   -0.073507876602    1.606771374607    0.000000000000
 H    1.485285206442    1.573066106307   -0.882842000005
 H    1.485285206442    1.573066106307    0.882842000005
 C    0.946247336312   -0.341904735293    0.000000000000
 O   -0.191186850996   -0.908950004693    0.000000000000
 O    2.099639509033   -0.877059362493    0.000000000000
NA   -2.442617185386    0.581372594408    0.000000000000
