8

 C    0.969624899046    1.194042605454    0.000000000000
 H   -0.050130313869    1.591296718554    0.000000000000
 H    1.508662769176    1.557591450254   -0.882842000005
 H    1.508662769176    1.557591450254    0.882842000005
 C    0.969624899046   -0.357379391346    0.000000000000
 O   -0.167809288263   -0.924424660746    0.000000000000
 O    2.123017071766   -0.892534018546    0.000000000000
NA   -2.502625931333    0.621095071654    0.000000000000
