8

 C    0.993002461779    1.178567949400    0.000000000000
 H   -0.026752751135    1.575822062500    0.000000000000
 H    1.532040331910    1.542116794200   -0.882842000005
 H    1.532040331910    1.542116794200    0.882842000005
 C    0.993002461779   -0.372854047400    0.000000000000
 O   -0.144431725529   -0.939899316800    0.000000000000
 O    2.146394634500   -0.908008674600    0.000000000000
NA   -2.562634677281    0.660817548901    0.000000000000
