8

 C    1.203400526382    1.039296044915    0.000000000000
 H    0.183645313468    1.436550158015    0.000000000000
 H    1.742438396513    1.402844889715   -0.882842000005
 H    1.742438396513    1.402844889715    0.882842000005
 C    1.203400526382   -0.512125951885    0.000000000000
 O    0.065966339074   -1.079171221285    0.000000000000
 O    2.356792699103   -1.047280579085    0.000000000000
NA   -3.102713390807    1.018319844116    0.000000000000
