8

 C    1.273533214583    0.992872076753    0.000000000000
 H    0.253778001669    1.390126189853    0.000000000000
 H    1.812571084714    1.356420921553   -0.882842000005
 H    1.812571084714    1.356420921553    0.882842000005
 C    1.273533214583   -0.558549920047    0.000000000000
 O    0.136099027275   -1.125595189447    0.000000000000
 O    2.426925387304   -1.093704547247    0.000000000000
NA   -3.282739628650    1.137487275854    0.000000000000
