8

 C    1.390421028252    0.915498796484    0.000000000000
 H    0.370665815338    1.312752909584    0.000000000000
 H    1.929458898382    1.279047641284   -0.882842000005
 H    1.929458898382    1.279047641284    0.882842000005
 C    1.390421028252   -0.635923200316    0.000000000000
 O    0.252986840944   -1.202968469716    0.000000000000
 O    2.543813200973   -1.171077827516    0.000000000000
NA   -3.582783358387    1.336099662085    0.000000000000
