8

 C    1.413798590986    0.900024140430    0.000000000000
 H    0.394043378071    1.297278253530    0.000000000000
 H    1.952836461116    1.263572985230   -0.882842000005
 H    1.952836461116    1.263572985230    0.882842000005
 C    1.413798590986   -0.651397856370    0.000000000000
 O    0.276364403678   -1.218443125770    0.000000000000
 O    2.567190763706   -1.186552483570    0.000000000000
NA   -3.642792104334    1.375822139331    0.000000000000
