8

 C    1.437176153719    0.884549484376    0.000000000000
 H    0.417420940805    1.281803597476    0.000000000000
 H    1.976214023850    1.248098329176   -0.882842000005
 H    1.976214023850    1.248098329176    0.882842000005
 C    1.437176153719   -0.666872512424    0.000000000000
 O    0.299741966411   -1.233917781824    0.000000000000
 O    2.590568326440   -1.202027139624    0.000000000000
NA   -3.702800850281    1.415544616578    0.000000000000
