8

 C    1.460553716453    0.869074828322    0.000000000000
 H    0.440798503539    1.266328941422    0.000000000000
 H    1.999591586583    1.232623673122   -0.882842000005
 H    1.999591586583    1.232623673122    0.882842000005
 C    1.460553716453   -0.682347168478    0.000000000000
 O    0.323119529145   -1.249392437878    0.000000000000
 O    2.613945889174   -1.217501795678    0.000000000000
NA   -3.762809596229    1.455267093824    0.000000000000
