8

 C    1.530686404654    0.822650860161    0.000000000000
 H    0.510931191740    1.219904973261    0.000000000000
 H    2.069724274784    1.186199704961   -0.882842000005
 H    2.069724274784    1.186199704961    0.882842000005
 C    1.530686404654   -0.728771136639    0.000000000000
 O    0.393252217346   -1.295816406039    0.000000000000
 O    2.684078577375   -1.263925763839    0.000000000000
NA   -3.942835834071    1.574434525562    0.000000000000
