8

 C    1.554063967388    0.807176204107    0.000000000000
 H    0.534308754474    1.204430317207    0.000000000000
 H    2.093101837518    1.170725048907   -0.882842000005
 H    2.093101837518    1.170725048907    0.882842000005
 C    1.554063967388   -0.744245792693    0.000000000000
 O    0.416629780080   -1.311291062093    0.000000000000
 O    2.707456140108   -1.279400419893    0.000000000000
NA   -4.002844580018    1.614157002808    0.000000000000
