8

 C    1.577441530121    0.791701548053    0.000000000000
 H    0.557686317207    1.188955661153    0.000000000000
 H    2.116479400252    1.155250392853   -0.882842000005
 H    2.116479400252    1.155250392853    0.882842000005
 C    1.577441530121   -0.759720448747    0.000000000000
 O    0.440007342813   -1.326765718147    0.000000000000
 O    2.730833702842   -1.294875075947    0.000000000000
NA   -4.062853325966    1.653879480055    0.000000000000
