8

 C    1.624196655589    0.760752235945    0.000000000000
 H    0.604441442675    1.158006349045    0.000000000000
 H    2.163234525719    1.124301080745   -0.882842000005
 H    2.163234525719    1.124301080745    0.882842000005
 C    1.624196655589   -0.790669760855    0.000000000000
 O    0.486762468281   -1.357715030255    0.000000000000
 O    2.777588828310   -1.325824388055    0.000000000000
NA   -4.182870817861    1.733324434547    0.000000000000
