8

 C    1.647574218322    0.745277579892    0.000000000000
 H    0.627819005408    1.142531692992    0.000000000000
 H    2.186612088453    1.108826424692   -0.882842000005
 H    2.186612088453    1.108826424692    0.882842000005
 C    1.647574218322   -0.806144416908    0.000000000000
 O    0.510140031014   -1.373189686308    0.000000000000
 O    2.800966391043   -1.341299044108    0.000000000000
NA   -4.242879563808    1.773046911793    0.000000000000
