8

 C    1.670951781056    0.729802923838    0.000000000000
 H    0.651196568142    1.127057036938    0.000000000000
 H    2.209989651186    1.093351768638   -0.882842000005
 H    2.209989651186    1.093351768638    0.882842000005
 C    1.670951781056   -0.821619072962    0.000000000000
 O    0.533517593748   -1.388664342362    0.000000000000
 O    2.824343953777   -1.356773700162    0.000000000000
NA   -4.302888309755    1.812769389039    0.000000000000
