8

 C    1.951482533860    0.544107051191    0.000000000000
 H    0.931727320946    0.941361164291    0.000000000000
 H    2.490520403991    0.907655895991   -0.882842000005
 H    2.490520403991    0.907655895991    0.882842000005
 C    1.951482533860   -1.007314945609    0.000000000000
 O    0.814048346552   -1.574360215009    0.000000000000
 O    3.104874706581   -1.542469572809    0.000000000000
NA   -5.022993261124    2.289439115993    0.000000000000
